*Heading
** Job name: Job-1 Model name: Model-1
** Generated by: Abaqus/CAE 2024
*Preprint, echo=NO, model=NO, history=NO, contact=NO
**
** PARTS
**
*Part, name=Part-1
*Node
      1, 0.0444499999,           0., 0.0126999998
      2, 0.0444499999,           0., 0.0253999997
      3,           0.,           0., 0.0253999997
      4,           0.,           0., 0.0126999998
      5, 0.0888999999,           0., 0.0126999998
      6, 0.0888999999,           0., 0.0253999997
      7, 0.0444499999,           0.,           0.
      8,           0.,           0.,           0.
      9, 0.0888999999,           0.,           0.
     10, 0.0444499999,           0.,  0.014816667
     11, 0.0444499999,           0., 0.0169333331
     12, 0.0444499999,           0., 0.0190500002
     13, 0.0444499999,           0., 0.0211666673
     14, 0.0444499999,           0., 0.0232833326
     15,  0.042429544,           0., 0.0253999997
     16, 0.0404090919,           0., 0.0253999997
     17,  0.038388636,           0., 0.0253999997
     18, 0.0363681801,           0., 0.0253999997
     19, 0.0343477279,           0., 0.0253999997
     20,  0.032327272,           0., 0.0253999997
** ... 565 like lines cut
*Element, type=S4R
  1,   1,  10, 166,  61
  2,  10,  11, 167, 166
  3,  11,  12, 168, 167
  4,  12,  13, 169, 168
  5,  13,  14, 170, 169
  6,  14,   2,  15, 170
  7,  61, 166, 171,  60
  8, 166, 167, 172, 171
  9, 167, 168, 173, 172
 10, 168, 169, 174, 173
 11, 169, 170, 175, 174
 12, 170,  15,  16, 175
 13,  60, 171, 176,  59
 14, 171, 172, 177, 176
 15, 172, 173, 178, 177
 16, 173, 174, 179, 178
 17, 174, 175, 180, 179
 18, 175,  16,  17, 180
 19,  59, 176, 181,  58
 20, 176, 177, 182, 181
** ... 508 like lines cut
*Nset, nset=Set-1, generate
   1,  585,    1
*Elset, elset=Set-1, generate
   1,  528,    1
*Nset, nset=CenterNode
 1,
** Section: Section-2
*Shell Section, elset=Set-1, material=FR4
0.0016, 5
*End Part
**  
**
** ASSEMBLY
**
*Assembly, name=Assembly
**  
*Instance, name=Part-1-1, part=Part-1
*End Instance
**  
*Nset, nset=Set-1, instance=Part-1-1
   3,   4,   5,   6,   8,   9,  36,  37,  38,  39,  40,  83,  84,  85,  86,  87
 114, 115, 116, 117, 118, 161, 162, 163, 164, 165
*Elset, elset=Set-1, instance=Part-1-1
 127, 128, 129, 130, 131, 132, 259, 260, 261, 262, 263, 264, 391, 392, 393, 394
 395, 396, 523, 524, 525, 526, 527, 528
*Nset, nset=Set-2, instance=Part-1-1
 1,
*End Assembly
*Amplitude, name=Amp-1
             0.,              0.,           0.001,              0.,          0.0015,              1.,           0.002,              0.
*Amplitude, name=Amp-2
             0.,              0.,           0.001,              1.,           0.002,              0.
*Amplitude, name=Amp-3
             0.,              0.,           0.005,              0.,        0.005001,              1.,          0.0051,              1.
       0.005101,              0.
** 
** MATERIALS
** 
*Material, name=FR4
*Damping, alpha=65.53, beta=3.95e-06
*Density
1900.,
*Elastic
 1.86e+10,0.
** 
** BOUNDARY CONDITIONS
** 
** Name: FixedEnds Type: Symmetry/Antisymmetry/Encastre
*Boundary
Set-1, ENCASTRE
** ----------------------------------------------------------------
** 
** STEP: Force
** 
*Step, name=Force, nlgeom=YES
*Dynamic, Explicit
, 0.05
*Bulk Viscosity
0.06, 1.2
** 
** LOADS
** 
** Name: Load-1   Type: Concentrated force
*Cload, amplitude=Amp-3
Set-2, 2, -30.
** 
** OUTPUT REQUESTS
** 
*Restart, write, number interval=1, time marks=NO
** 
** FIELD OUTPUT: CenterNodeDisp
** 
*Output, field
*Node Output, nset=Part-1-1.CenterNode
U, UT, V, VT
** 
** FIELD OUTPUT: F-Output-1
** 
*Output, field, variable=PRESELECT
** 
** HISTORY OUTPUT: CenterDisp
** 
*Output, history
*Node Output, nset=Part-1-1.CenterNode
U1, U2, U3, UR1, UR2, UR3
** 
** HISTORY OUTPUT: H-Output-1
** 
*Output, history, variable=PRESELECT
*End Step
